*SPEF "ieee 1481-1999"
*DESIGN "tiny_user_project"
*DATE "11:11:11 Fri 11 11, 1111"
*VENDOR "OpenRCX"
*PROGRAM "Parallel Extraction"
*VERSION "1.0"
*DESIGN_FLOW "NAME_SCOPE LOCAL" "PIN_CAP NONE"
*DIVIDER /
*DELIMITER :
*BUS_DELIMITER []
*T_UNIT 1 NS
*C_UNIT 1 PF
*R_UNIT 1 OHM
*L_UNIT 1 HENRY

*NAME_MAP
*1 io_in[0]
*2 io_in[10]
*3 io_in[11]
*4 io_in[12]
*5 io_in[13]
*6 io_in[14]
*7 io_in[15]
*8 io_in[16]
*9 io_in[17]
*10 io_in[18]
*11 io_in[19]
*12 io_in[1]
*13 io_in[20]
*14 io_in[21]
*15 io_in[22]
*16 io_in[23]
*17 io_in[24]
*18 io_in[25]
*19 io_in[26]
*20 io_in[27]
*21 io_in[28]
*22 io_in[29]
*23 io_in[2]
*24 io_in[30]
*25 io_in[31]
*26 io_in[32]
*27 io_in[33]
*28 io_in[34]
*29 io_in[35]
*30 io_in[36]
*31 io_in[37]
*32 io_in[3]
*33 io_in[4]
*34 io_in[5]
*35 io_in[6]
*36 io_in[7]
*37 io_in[8]
*38 io_in[9]
*39 net14
*40 net24
*41 net25
*42 net26
*43 net27
*44 net28
*45 net29
*46 net30
*47 net31
*48 net32
*49 net33
*50 net15
*51 net34
*52 net35
*53 net36
*54 net37
*55 net38
*56 net39
*57 net40
*58 net41
*59 net42
*60 net43
*61 net16
*62 net44
*63 net45
*64 net46
*65 net47
*66 net48
*67 net49
*68 net50
*69 net51
*70 net17
*71 net18
*72 net19
*73 net20
*74 net21
*75 net22
*76 net23
*77 net52
*78 net62
*79 net63
*80 net64
*81 net65
*82 net66
*83 net67
*84 io_out[16]
*85 io_out[17]
*86 io_out[18]
*87 io_out[19]
*88 net53
*89 io_out[20]
*90 io_out[21]
*91 net68
*92 net69
*93 net70
*94 net71
*95 net72
*96 net73
*97 net74
*98 net75
*99 net54
*100 net76
*101 net77
*102 net78
*103 net79
*104 net80
*105 net81
*106 net82
*107 net83
*108 net55
*109 net56
*110 net57
*111 net58
*112 net59
*113 net60
*114 net61
*117 _000_
*118 _001_
*119 _002_
*120 _003_
*121 _004_
*122 _005_
*123 _006_
*124 _007_
*125 _008_
*126 _009_
*127 _010_
*128 _011_
*129 _012_
*130 _013_
*131 _014_
*132 _015_
*133 _016_
*134 _017_
*135 _018_
*136 _019_
*137 _020_
*138 _021_
*139 _022_
*140 _023_
*141 _024_
*142 _025_
*143 _026_
*144 _027_
*145 _028_
*146 _029_
*147 _030_
*148 _031_
*149 _032_
*150 _033_
*151 _034_
*152 _035_
*153 _036_
*154 _037_
*155 _038_
*156 _039_
*157 _040_
*158 _041_
*159 _042_
*160 _043_
*161 _044_
*162 _045_
*163 _046_
*164 _047_
*165 _048_
*166 _049_
*167 _050_
*168 _051_
*169 _052_
*170 _053_
*171 _054_
*172 _055_
*173 _056_
*174 _057_
*175 _058_
*176 _059_
*177 _060_
*178 _061_
*179 _062_
*180 _063_
*181 _064_
*182 _065_
*183 _066_
*184 mod\.cnter_enb_ovf_i1\.cnt_val\[0\]
*185 mod\.cnter_enb_ovf_i1\.cnt_val\[1\]
*186 mod\.cnter_enb_ovf_i1\.cnt_val\[2\]
*187 mod\.cnter_enb_ovf_i1\.cnt_val\[3\]
*188 mod\.cnter_enb_ovf_i1\.cnt_val\[4\]
*189 mod\.cnter_enb_ovf_i1\.overflow
*190 mod\.cnter_enb_ovf_i2\.cnt_val\[0\]
*191 mod\.cnter_enb_ovf_i2\.cnt_val\[1\]
*192 mod\.cnter_enb_ovf_i2\.cnt_val\[2\]
*193 mod\.cnter_enb_ovf_i2\.cnt_val\[3\]
*194 mod\.cnter_enb_ovf_i2\.cnt_val\[4\]
*195 mod\.traffic_sm_inst\.traffic_state\[0\]
*196 mod\.traffic_sm_inst\.traffic_state\[1\]
*197 mod\.traffic_sm_inst\.traffic_state\[2\]
*198 mod\.traffic_sm_inst\.traffic_state\[3\]
*199 mod\.traffic_sm_inst\.traffic_state\[4\]
*200 mod\.traffic_sm_inst\.traffic_state\[5\]
*201 mod\.traffic_sm_inst\.traffic_state\[6\]
*202 net1
*203 net10
*204 net11
*205 net12
*206 net13
*207 net2
*208 net3
*209 net4
*210 net5
*211 net6
*212 net7
*213 net8
*214 net9
*215 ANTENNA_fanout13_A
*216 ANTENNA_input1_A
*217 ANTENNA_input2_A
*218 ANTENNA_input3_A
*219 FILLER_0_109
*220 FILLER_0_113
*221 FILLER_0_125
*222 FILLER_0_137
*223 FILLER_0_141
*224 FILLER_0_15
*225 FILLER_0_153
*226 FILLER_0_165
*227 FILLER_0_169
*228 FILLER_0_177
*229 FILLER_0_181
*230 FILLER_0_188
*231 FILLER_0_27
*232 FILLER_0_29
*233 FILLER_0_3
*234 FILLER_0_41
*235 FILLER_0_53
*236 FILLER_0_57
*237 FILLER_0_69
*238 FILLER_0_8
*239 FILLER_0_81
*240 FILLER_0_85
*241 FILLER_0_97
*242 FILLER_10_109
*243 FILLER_10_121
*244 FILLER_10_133
*245 FILLER_10_139
*246 FILLER_10_141
*247 FILLER_10_153
*248 FILLER_10_165
*249 FILLER_10_177
*250 FILLER_10_181
*251 FILLER_10_188
*252 FILLER_10_20
*253 FILLER_10_29
*254 FILLER_10_3
*255 FILLER_10_41
*256 FILLER_10_53
*257 FILLER_10_65
*258 FILLER_10_77
*259 FILLER_10_8
*260 FILLER_10_83
*261 FILLER_10_85
*262 FILLER_10_97
*263 FILLER_11_105
*264 FILLER_11_111
*265 FILLER_11_113
*266 FILLER_11_125
*267 FILLER_11_137
*268 FILLER_11_149
*269 FILLER_11_161
*270 FILLER_11_167
*271 FILLER_11_169
*272 FILLER_11_174
*273 FILLER_11_181
*274 FILLER_11_188
*275 FILLER_11_20
*276 FILLER_11_3
*277 FILLER_11_32
*278 FILLER_11_44
*279 FILLER_11_57
*280 FILLER_11_69
*281 FILLER_11_8
*282 FILLER_11_81
*283 FILLER_11_93
*284 FILLER_12_109
*285 FILLER_12_121
*286 FILLER_12_133
*287 FILLER_12_139
*288 FILLER_12_141
*289 FILLER_12_153
*290 FILLER_12_161
*291 FILLER_12_167
*292 FILLER_12_174
*293 FILLER_12_181
*294 FILLER_12_188
*295 FILLER_12_20
*296 FILLER_12_29
*297 FILLER_12_3
*298 FILLER_12_41
*299 FILLER_12_53
*300 FILLER_12_65
*301 FILLER_12_77
*302 FILLER_12_8
*303 FILLER_12_83
*304 FILLER_12_85
*305 FILLER_12_97
*306 FILLER_13_105
*307 FILLER_13_111
*308 FILLER_13_113
*309 FILLER_13_125
*310 FILLER_13_137
*311 FILLER_13_149
*312 FILLER_13_159
*313 FILLER_13_166
*314 FILLER_13_169
*315 FILLER_13_174
*316 FILLER_13_181
*317 FILLER_13_188
*318 FILLER_13_20
*319 FILLER_13_3
*320 FILLER_13_32
*321 FILLER_13_44
*322 FILLER_13_57
*323 FILLER_13_69
*324 FILLER_13_8
*325 FILLER_13_81
*326 FILLER_13_93
*327 FILLER_14_109
*328 FILLER_14_121
*329 FILLER_14_133
*330 FILLER_14_139
*331 FILLER_14_141
*332 FILLER_14_149
*333 FILLER_14_153
*334 FILLER_14_164
*335 FILLER_14_170
*336 FILLER_14_174
*337 FILLER_14_181
*338 FILLER_14_188
*339 FILLER_14_20
*340 FILLER_14_29
*341 FILLER_14_3
*342 FILLER_14_41
*343 FILLER_14_53
*344 FILLER_14_65
*345 FILLER_14_77
*346 FILLER_14_8
*347 FILLER_14_83
*348 FILLER_14_85
*349 FILLER_14_97
*350 FILLER_15_105
*351 FILLER_15_111
*352 FILLER_15_113
*353 FILLER_15_125
*354 FILLER_15_137
*355 FILLER_15_144
*356 FILLER_15_153
*357 FILLER_15_162
*358 FILLER_15_169
*359 FILLER_15_174
*360 FILLER_15_181
*361 FILLER_15_188
*362 FILLER_15_20
*363 FILLER_15_3
*364 FILLER_15_32
*365 FILLER_15_44
*366 FILLER_15_57
*367 FILLER_15_69
*368 FILLER_15_8
*369 FILLER_15_81
*370 FILLER_15_93
*371 FILLER_16_109
*372 FILLER_16_121
*373 FILLER_16_133
*374 FILLER_16_138
*375 FILLER_16_141
*376 FILLER_16_149
*377 FILLER_16_15
*378 FILLER_16_159
*379 FILLER_16_168
*380 FILLER_16_176
*381 FILLER_16_184
*382 FILLER_16_188
*383 FILLER_16_27
*384 FILLER_16_29
*385 FILLER_16_3
*386 FILLER_16_41
*387 FILLER_16_53
*388 FILLER_16_65
*389 FILLER_16_77
*390 FILLER_16_83
*391 FILLER_16_85
*392 FILLER_16_97
*393 FILLER_17_105
*394 FILLER_17_111
*395 FILLER_17_113
*396 FILLER_17_121
*397 FILLER_17_126
*398 FILLER_17_135
*399 FILLER_17_146
*400 FILLER_17_157
*401 FILLER_17_166
*402 FILLER_17_169
*403 FILLER_17_175
*404 FILLER_17_181
*405 FILLER_17_188
*406 FILLER_17_20
*407 FILLER_17_3
*408 FILLER_17_32
*409 FILLER_17_44
*410 FILLER_17_57
*411 FILLER_17_69
*412 FILLER_17_8
*413 FILLER_17_81
*414 FILLER_17_93
*415 FILLER_18_109
*416 FILLER_18_118
*417 FILLER_18_127
*418 FILLER_18_138
*419 FILLER_18_141
*420 FILLER_18_155
*421 FILLER_18_166
*422 FILLER_18_176
*423 FILLER_18_184
*424 FILLER_18_20
*425 FILLER_18_29
*426 FILLER_18_3
*427 FILLER_18_41
*428 FILLER_18_53
*429 FILLER_18_65
*430 FILLER_18_77
*431 FILLER_18_8
*432 FILLER_18_83
*433 FILLER_18_85
*434 FILLER_18_97
*435 FILLER_19_103
*436 FILLER_19_110
*437 FILLER_19_113
*438 FILLER_19_122
*439 FILLER_19_133
*440 FILLER_19_157
*441 FILLER_19_166
*442 FILLER_19_169
*443 FILLER_19_178
*444 FILLER_19_187
*445 FILLER_19_20
*446 FILLER_19_3
*447 FILLER_19_32
*448 FILLER_19_44
*449 FILLER_19_57
*450 FILLER_19_69
*451 FILLER_19_8
*452 FILLER_19_81
*453 FILLER_19_93
*454 FILLER_19_99
*455 FILLER_1_105
*456 FILLER_1_111
*457 FILLER_1_113
*458 FILLER_1_125
*459 FILLER_1_137
*460 FILLER_1_149
*461 FILLER_1_161
*462 FILLER_1_167
*463 FILLER_1_169
*464 FILLER_1_181
*465 FILLER_1_188
*466 FILLER_1_20
*467 FILLER_1_3
*468 FILLER_1_32
*469 FILLER_1_44
*470 FILLER_1_57
*471 FILLER_1_69
*472 FILLER_1_8
*473 FILLER_1_81
*474 FILLER_1_93
*475 FILLER_20_105
*476 FILLER_20_115
*477 FILLER_20_126
*478 FILLER_20_138
*479 FILLER_20_141
*480 FILLER_20_163
*481 FILLER_20_175
*482 FILLER_20_186
*483 FILLER_20_20
*484 FILLER_20_29
*485 FILLER_20_3
*486 FILLER_20_41
*487 FILLER_20_53
*488 FILLER_20_65
*489 FILLER_20_77
*490 FILLER_20_8
*491 FILLER_20_83
*492 FILLER_20_85
*493 FILLER_20_93
*494 FILLER_20_97
*495 FILLER_21_100
*496 FILLER_21_110
*497 FILLER_21_113
*498 FILLER_21_129
*499 FILLER_21_153
*500 FILLER_21_165
*501 FILLER_21_169
*502 FILLER_21_179
*503 FILLER_21_188
*504 FILLER_21_20
*505 FILLER_21_3
*506 FILLER_21_32
*507 FILLER_21_44
*508 FILLER_21_57
*509 FILLER_21_69
*510 FILLER_21_8
*511 FILLER_21_84
*512 FILLER_21_91
*513 FILLER_22_103
*514 FILLER_22_114
*515 FILLER_22_138
*516 FILLER_22_141
*517 FILLER_22_163
*518 FILLER_22_187
*519 FILLER_22_20
*520 FILLER_22_29
*521 FILLER_22_3
*522 FILLER_22_41
*523 FILLER_22_53
*524 FILLER_22_68
*525 FILLER_22_75
*526 FILLER_22_8
*527 FILLER_22_82
*528 FILLER_22_85
*529 FILLER_22_93
*530 FILLER_23_110
*531 FILLER_23_113
*532 FILLER_23_125
*533 FILLER_23_149
*534 FILLER_23_163
*535 FILLER_23_167
*536 FILLER_23_169
*537 FILLER_23_180
*538 FILLER_23_188
*539 FILLER_23_20
*540 FILLER_23_3
*541 FILLER_23_32
*542 FILLER_23_44
*543 FILLER_23_57
*544 FILLER_23_62
*545 FILLER_23_69
*546 FILLER_23_77
*547 FILLER_23_8
*548 FILLER_23_87
*549 FILLER_23_98
*550 FILLER_24_114
*551 FILLER_24_138
*552 FILLER_24_141
*553 FILLER_24_15
*554 FILLER_24_164
*555 FILLER_24_188
*556 FILLER_24_27
*557 FILLER_24_29
*558 FILLER_24_3
*559 FILLER_24_41
*560 FILLER_24_56
*561 FILLER_24_63
*562 FILLER_24_72
*563 FILLER_24_8
*564 FILLER_24_82
*565 FILLER_24_85
*566 FILLER_24_90
*567 FILLER_25_110
*568 FILLER_25_113
*569 FILLER_25_119
*570 FILLER_25_129
*571 FILLER_25_15
*572 FILLER_25_154
*573 FILLER_25_166
*574 FILLER_25_169
*575 FILLER_25_181
*576 FILLER_25_188
*577 FILLER_25_22
*578 FILLER_25_3
*579 FILLER_25_34
*580 FILLER_25_42
*581 FILLER_25_47
*582 FILLER_25_54
*583 FILLER_25_57
*584 FILLER_25_65
*585 FILLER_25_75
*586 FILLER_25_8
*587 FILLER_25_86
*588 FILLER_26_101
*589 FILLER_26_114
*590 FILLER_26_138
*591 FILLER_26_141
*592 FILLER_26_16
*593 FILLER_26_163
*594 FILLER_26_187
*595 FILLER_26_20
*596 FILLER_26_29
*597 FILLER_26_3
*598 FILLER_26_40
*599 FILLER_26_47
*600 FILLER_26_55
*601 FILLER_26_63
*602 FILLER_26_71
*603 FILLER_26_8
*604 FILLER_26_82
*605 FILLER_26_85
*606 FILLER_26_91
*607 FILLER_27_110
*608 FILLER_27_113
*609 FILLER_27_117
*610 FILLER_27_138
*611 FILLER_27_141
*612 FILLER_27_163
*613 FILLER_27_167
*614 FILLER_27_169
*615 FILLER_27_181
*616 FILLER_27_188
*617 FILLER_27_19
*618 FILLER_27_26
*619 FILLER_27_29
*620 FILLER_27_3
*621 FILLER_27_38
*622 FILLER_27_46
*623 FILLER_27_54
*624 FILLER_27_57
*625 FILLER_27_65
*626 FILLER_27_73
*627 FILLER_27_8
*628 FILLER_27_82
*629 FILLER_27_85
*630 FILLER_27_89
*631 FILLER_27_97
*632 FILLER_2_109
*633 FILLER_2_121
*634 FILLER_2_133
*635 FILLER_2_139
*636 FILLER_2_141
*637 FILLER_2_153
*638 FILLER_2_165
*639 FILLER_2_177
*640 FILLER_2_188
*641 FILLER_2_20
*642 FILLER_2_29
*643 FILLER_2_3
*644 FILLER_2_41
*645 FILLER_2_53
*646 FILLER_2_65
*647 FILLER_2_77
*648 FILLER_2_8
*649 FILLER_2_83
*650 FILLER_2_85
*651 FILLER_2_97
*652 FILLER_3_105
*653 FILLER_3_111
*654 FILLER_3_113
*655 FILLER_3_125
*656 FILLER_3_137
*657 FILLER_3_149
*658 FILLER_3_161
*659 FILLER_3_167
*660 FILLER_3_169
*661 FILLER_3_181
*662 FILLER_3_188
*663 FILLER_3_20
*664 FILLER_3_3
*665 FILLER_3_32
*666 FILLER_3_44
*667 FILLER_3_57
*668 FILLER_3_69
*669 FILLER_3_8
*670 FILLER_3_81
*671 FILLER_3_93
*672 FILLER_4_109
*673 FILLER_4_121
*674 FILLER_4_133
*675 FILLER_4_139
*676 FILLER_4_141
*677 FILLER_4_153
*678 FILLER_4_165
*679 FILLER_4_177
*680 FILLER_4_188
*681 FILLER_4_20
*682 FILLER_4_29
*683 FILLER_4_3
*684 FILLER_4_41
*685 FILLER_4_53
*686 FILLER_4_65
*687 FILLER_4_77
*688 FILLER_4_8
*689 FILLER_4_83
*690 FILLER_4_85
*691 FILLER_4_97
*692 FILLER_5_105
*693 FILLER_5_111
*694 FILLER_5_113
*695 FILLER_5_125
*696 FILLER_5_137
*697 FILLER_5_149
*698 FILLER_5_161
*699 FILLER_5_167
*700 FILLER_5_169
*701 FILLER_5_181
*702 FILLER_5_188
*703 FILLER_5_20
*704 FILLER_5_3
*705 FILLER_5_32
*706 FILLER_5_44
*707 FILLER_5_57
*708 FILLER_5_69
*709 FILLER_5_8
*710 FILLER_5_81
*711 FILLER_5_93
*712 FILLER_6_109
*713 FILLER_6_121
*714 FILLER_6_133
*715 FILLER_6_139
*716 FILLER_6_141
*717 FILLER_6_153
*718 FILLER_6_165
*719 FILLER_6_177
*720 FILLER_6_188
*721 FILLER_6_20
*722 FILLER_6_29
*723 FILLER_6_3
*724 FILLER_6_41
*725 FILLER_6_53
*726 FILLER_6_65
*727 FILLER_6_77
*728 FILLER_6_8
*729 FILLER_6_83
*730 FILLER_6_85
*731 FILLER_6_97
*732 FILLER_7_105
*733 FILLER_7_111
*734 FILLER_7_113
*735 FILLER_7_125
*736 FILLER_7_137
*737 FILLER_7_149
*738 FILLER_7_15
*739 FILLER_7_161
*740 FILLER_7_167
*741 FILLER_7_169
*742 FILLER_7_181
*743 FILLER_7_188
*744 FILLER_7_27
*745 FILLER_7_3
*746 FILLER_7_39
*747 FILLER_7_51
*748 FILLER_7_55
*749 FILLER_7_57
*750 FILLER_7_69
*751 FILLER_7_81
*752 FILLER_7_93
*753 FILLER_8_109
*754 FILLER_8_121
*755 FILLER_8_133
*756 FILLER_8_139
*757 FILLER_8_141
*758 FILLER_8_153
*759 FILLER_8_165
*760 FILLER_8_177
*761 FILLER_8_188
*762 FILLER_8_20
*763 FILLER_8_29
*764 FILLER_8_3
*765 FILLER_8_41
*766 FILLER_8_53
*767 FILLER_8_65
*768 FILLER_8_77
*769 FILLER_8_8
*770 FILLER_8_83
*771 FILLER_8_85
*772 FILLER_8_97
*773 FILLER_9_105
*774 FILLER_9_111
*775 FILLER_9_113
*776 FILLER_9_125
*777 FILLER_9_137
*778 FILLER_9_149
*779 FILLER_9_161
*780 FILLER_9_167
*781 FILLER_9_169
*782 FILLER_9_181
*783 FILLER_9_188
*784 FILLER_9_20
*785 FILLER_9_3
*786 FILLER_9_32
*787 FILLER_9_44
*788 FILLER_9_57
*789 FILLER_9_69
*790 FILLER_9_8
*791 FILLER_9_81
*792 FILLER_9_93
*793 PHY_0
*794 PHY_1
*795 PHY_10
*796 PHY_11
*797 PHY_12
*798 PHY_13
*799 PHY_14
*800 PHY_15
*801 PHY_16
*802 PHY_17
*803 PHY_18
*804 PHY_19
*805 PHY_2
*806 PHY_20
*807 PHY_21
*808 PHY_22
*809 PHY_23
*810 PHY_24
*811 PHY_25
*812 PHY_26
*813 PHY_27
*814 PHY_28
*815 PHY_29
*816 PHY_3
*817 PHY_30
*818 PHY_31
*819 PHY_32
*820 PHY_33
*821 PHY_34
*822 PHY_35
*823 PHY_36
*824 PHY_37
*825 PHY_38
*826 PHY_39
*827 PHY_4
*828 PHY_40
*829 PHY_41
*830 PHY_42
*831 PHY_43
*832 PHY_44
*833 PHY_45
*834 PHY_46
*835 PHY_47
*836 PHY_48
*837 PHY_49
*838 PHY_5
*839 PHY_50
*840 PHY_51
*841 PHY_52
*842 PHY_53
*843 PHY_54
*844 PHY_55
*845 PHY_6
*846 PHY_7
*847 PHY_8
*848 PHY_9
*849 TAP_100
*850 TAP_101
*851 TAP_102
*852 TAP_103
*853 TAP_104
*854 TAP_105
*855 TAP_106
*856 TAP_107
*857 TAP_108
*858 TAP_109
*859 TAP_110
*860 TAP_111
*861 TAP_112
*862 TAP_113
*863 TAP_114
*864 TAP_115
*865 TAP_116
*866 TAP_117
*867 TAP_118
*868 TAP_119
*869 TAP_120
*870 TAP_121
*871 TAP_122
*872 TAP_123
*873 TAP_124
*874 TAP_125
*875 TAP_126
*876 TAP_127
*877 TAP_128
*878 TAP_129
*879 TAP_130
*880 TAP_131
*881 TAP_132
*882 TAP_133
*883 TAP_134
*884 TAP_135
*885 TAP_136
*886 TAP_137
*887 TAP_138
*888 TAP_139
*889 TAP_140
*890 TAP_141
*891 TAP_142
*892 TAP_143
*893 TAP_144
*894 TAP_145
*895 TAP_56
*896 TAP_57
*897 TAP_58
*898 TAP_59
*899 TAP_60
*900 TAP_61
*901 TAP_62
*902 TAP_63
*903 TAP_64
*904 TAP_65
*905 TAP_66
*906 TAP_67
*907 TAP_68
*908 TAP_69
*909 TAP_70
*910 TAP_71
*911 TAP_72
*912 TAP_73
*913 TAP_74
*914 TAP_75
*915 TAP_76
*916 TAP_77
*917 TAP_78
*918 TAP_79
*919 TAP_80
*920 TAP_81
*921 TAP_82
*922 TAP_83
*923 TAP_84
*924 TAP_85
*925 TAP_86
*926 TAP_87
*927 TAP_88
*928 TAP_89
*929 TAP_90
*930 TAP_91
*931 TAP_92
*932 TAP_93
*933 TAP_94
*934 TAP_95
*935 TAP_96
*936 TAP_97
*937 TAP_98
*938 TAP_99
*939 _067_
*940 _068_
*941 _069_
*942 _070_
*943 _071_
*944 _072_
*945 _073_
*946 _074_
*947 _075_
*948 _076_
*949 _077_
*950 _078_
*951 _079_
*952 _080_
*953 _081_
*954 _082_
*955 _083_
*956 _084_
*957 _085_
*958 _086_
*959 _087_
*960 _088_
*961 _089_
*962 _090_
*963 _091_
*964 _092_
*965 _093_
*966 _094_
*967 _095_
*968 _096_
*969 _097_
*970 _098_
*971 _099_
*972 _100_
*973 _101_
*974 _102_
*975 _103_
*976 _104_
*977 _105_
*978 _106_
*979 _107_
*980 _108_
*981 _109_
*982 _110_
*983 _111_
*984 _112_
*985 _113_
*986 _114_
*987 _115_
*988 _116_
*989 _117_
*990 _118_
*991 _119_
*992 _120_
*993 _121_
*994 _122_
*995 _123_
*996 _124_
*997 _125_
*998 _126_
*999 _127_
*1000 _128_
*1001 _129_
*1002 _130_
*1003 _131_
*1004 _132_
*1005 _133_
*1006 _134_
*1007 _135_
*1008 _136_
*1009 _137_
*1010 _138_
*1011 _139_
*1012 _140_
*1013 _141_
*1014 _142_
*1015 _143_
*1016 _144_
*1017 _145_
*1018 _146_
*1019 _147_
*1020 _148_
*1021 _149_
*1022 _150_
*1023 _151_
*1024 _152_
*1025 _153_
*1026 _154_
*1027 _155_
*1028 _156_
*1029 _157_
*1030 fanout10
*1031 fanout11
*1032 fanout12
*1033 fanout13
*1034 input1
*1035 input2
*1036 input3
*1037 output4
*1038 output5
*1039 output6
*1040 output7
*1041 output8
*1042 output9
*1043 tiny_user_project_14
*1044 tiny_user_project_15
*1045 tiny_user_project_16
*1046 tiny_user_project_17
*1047 tiny_user_project_18
*1048 tiny_user_project_19
*1049 tiny_user_project_20
*1050 tiny_user_project_21
*1051 tiny_user_project_22
*1052 tiny_user_project_23
*1053 tiny_user_project_24
*1054 tiny_user_project_25
*1055 tiny_user_project_26
*1056 tiny_user_project_27
*1057 tiny_user_project_28
*1058 tiny_user_project_29
*1059 tiny_user_project_30
*1060 tiny_user_project_31
*1061 tiny_user_project_32
*1062 tiny_user_project_33
*1063 tiny_user_project_34
*1064 tiny_user_project_35
*1065 tiny_user_project_36
*1066 tiny_user_project_37
*1067 tiny_user_project_38
*1068 tiny_user_project_39
*1069 tiny_user_project_40
*1070 tiny_user_project_41
*1071 tiny_user_project_42
*1072 tiny_user_project_43
*1073 tiny_user_project_44
*1074 tiny_user_project_45
*1075 tiny_user_project_46
*1076 tiny_user_project_47
*1077 tiny_user_project_48
*1078 tiny_user_project_49
*1079 tiny_user_project_50
*1080 tiny_user_project_51
*1081 tiny_user_project_52
*1082 tiny_user_project_53
*1083 tiny_user_project_54
*1084 tiny_user_project_55
*1085 tiny_user_project_56
*1086 tiny_user_project_57
*1087 tiny_user_project_58
*1088 tiny_user_project_59
*1089 tiny_user_project_60
*1090 tiny_user_project_61
*1091 tiny_user_project_62
*1092 tiny_user_project_63
*1093 tiny_user_project_64
*1094 tiny_user_project_65
*1095 tiny_user_project_66
*1096 tiny_user_project_67
*1097 tiny_user_project_68
*1098 tiny_user_project_69
*1099 tiny_user_project_70
*1100 tiny_user_project_71
*1101 tiny_user_project_72
*1102 tiny_user_project_73
*1103 tiny_user_project_74
*1104 tiny_user_project_75
*1105 tiny_user_project_76
*1106 tiny_user_project_77
*1107 tiny_user_project_78
*1108 tiny_user_project_79
*1109 tiny_user_project_80
*1110 tiny_user_project_81
*1111 tiny_user_project_82
*1112 tiny_user_project_83

*PORTS
io_in[0] I
io_in[10] I
io_in[11] I
io_in[12] I
io_in[13] I
io_in[14] I
io_in[15] I
io_in[16] I
io_in[17] I
io_in[18] I
io_in[19] I
io_in[1] I
io_in[20] I
io_in[21] I
io_in[22] I
io_in[23] I
io_in[24] I
io_in[25] I
io_in[26] I
io_in[27] I
io_in[28] I
io_in[29] I
io_in[2] I
io_in[30] I
io_in[31] I
io_in[32] I
io_in[33] I
io_in[34] I
io_in[35] I
io_in[36] I
io_in[37] I
io_in[3] I
io_in[4] I
io_in[5] I
io_in[6] I
io_in[7] I
io_in[8] I
io_in[9] I
io_oeb[0] O
io_oeb[10] O
io_oeb[11] O
io_oeb[12] O
io_oeb[13] O
io_oeb[14] O
io_oeb[15] O
io_oeb[16] O
io_oeb[17] O
io_oeb[18] O
io_oeb[19] O
io_oeb[1] O
io_oeb[20] O
io_oeb[21] O
io_oeb[22] O
io_oeb[23] O
io_oeb[24] O
io_oeb[25] O
io_oeb[26] O
io_oeb[27] O
io_oeb[28] O
io_oeb[29] O
io_oeb[2] O
io_oeb[30] O
io_oeb[31] O
io_oeb[32] O
io_oeb[33] O
io_oeb[34] O
io_oeb[35] O
io_oeb[36] O
io_oeb[37] O
io_oeb[3] O
io_oeb[4] O
io_oeb[5] O
io_oeb[6] O
io_oeb[7] O
io_oeb[8] O
io_oeb[9] O
io_out[0] O
io_out[10] O
io_out[11] O
io_out[12] O
io_out[13] O
io_out[14] O
io_out[15] O
io_out[16] O
io_out[17] O
io_out[18] O
io_out[19] O
io_out[1] O
io_out[20] O
io_out[21] O
io_out[22] O
io_out[23] O
io_out[24] O
io_out[25] O
io_out[26] O
io_out[27] O
io_out[28] O
io_out[29] O
io_out[2] O
io_out[30] O
io_out[31] O
io_out[32] O
io_out[33] O
io_out[34] O
io_out[35] O
io_out[36] O
io_out[37] O
io_out[3] O
io_out[4] O
io_out[5] O
io_out[6] O
io_out[7] O
io_out[8] O
io_out[9] O

*D_NET *2 0.00581091
*CONN
*P io_in[10] I
*I *1034:A I *D sky130_fd_sc_hd__clkbuf_1
*I *216:DIODE I *D sky130_fd_sc_hd__diode_2
*CAP
1 io_in[10] 0.00105103
2 *1034:A 8.51032e-05
3 *216:DIODE 0.00044058
4 *2:14 0.00157671
5 *216:DIODE io_out[7] 0
6 *216:DIODE *41:9 0.000170388
7 *216:DIODE *207:5 0.000623331
8 *2:14 io_oeb[7] 0
9 *2:14 io_oeb[9] 0.000278524
10 *2:14 io_out[10] 0.000131227
11 *2:14 *939:A 3.23846e-05
12 *2:14 *942:A1 0.000110151
13 *2:14 *948:B 0.000431586
14 *2:14 *959:B 0.000149762
15 *2:14 *1030:A 0.000241056
16 *2:14 *45:14 0
17 *2:14 *169:21 2.11419e-05
18 *2:14 *190:25 9.15579e-05
19 *2:14 *195:39 7.43259e-05
20 *2:14 *199:16 0.000248125
21 *2:14 *204:29 5.39241e-05
*RES
1 io_in[10] *2:14 24.7604 
2 *2:14 *216:DIODE 28.9071 
3 *2:14 *1034:A 10.6571 
*END

*D_NET *37 0.0036531
*CONN
*P io_in[8] I
*I *1035:A I *D sky130_fd_sc_hd__clkbuf_1
*I *217:DIODE I *D sky130_fd_sc_hd__diode_2
*CAP
1 io_in[8] 0.000526528
2 *1035:A 2.94474e-05
3 *217:DIODE 0.000706524
4 *37:12 0.0012625
5 *217:DIODE io_oeb[6] 8.29703e-05
6 *217:DIODE io_out[10] 0.000146316
7 *217:DIODE io_out[15] 0
8 *1035:A io_oeb[10] 0.0001399
9 *1035:A *41:9 0.0001399
10 *37:12 io_oeb[10] 0
11 *37:12 io_oeb[7] 0.000166639
12 *37:12 io_out[10] 0.000391216
13 *37:12 io_out[8] 6.11553e-05
*RES
1 io_in[8] *37:12 9.38053 
2 *37:12 *217:DIODE 24.8357 
3 *37:12 *1035:A 15.1571 
*END

*D_NET *38 0.00188123
*CONN
*P io_in[9] I
*I *1036:A I *D sky130_fd_sc_hd__clkbuf_1
*I *218:DIODE I *D sky130_fd_sc_hd__diode_2
*CAP
1 io_in[9] 0.000436143
2 *1036:A 0
3 *218:DIODE 0.00020059
4 *38:18 0.000636732
5 *218:DIODE *151:10 5.52302e-05
6 *38:18 io_oeb[8] 0.000441372
7 *38:18 io_out[11] 2.09897e-05
8 *38:18 io_out[9] 9.01735e-05
*RES
1 io_in[9] *38:18 9.44012 
2 *38:18 *218:DIODE 12.3 
3 *38:18 *1036:A 9.3 
*END

*D_NET *39 0.000887258
*CONN
*P io_oeb[0] O
*I *1043:LO O *D sky130_fd_sc_hd__conb_1
*CAP
1 io_oeb[0] 0.000336514
2 *1043:LO 0.000336514
3 io_oeb[0] io_out[0] 0.000214229
4 io_oeb[0] io_out[1] 0
*RES
1 *1043:LO io_oeb[0] 20.7676 
*END

*D_NET *40 0.00562582
*CONN
*P io_oeb[10] O
*I *1053:LO O *D sky130_fd_sc_hd__conb_1
*CAP
1 io_oeb[10] 0.00137054
2 *1053:LO 0.00137054
3 io_oeb[10] io_oeb[11] 0.00167692
4 io_oeb[10] io_out[10] 4.89791e-05
5 io_oeb[10] io_out[11] 1.2249e-05
6 io_oeb[10] io_out[15] 2.30245e-05
7 io_oeb[10] *41:9 0.000447522
8 io_oeb[10] *196:13 0
9 io_oeb[10] *207:5 0.000536146
10 *1035:A io_oeb[10] 0.0001399
11 *37:12 io_oeb[10] 0
*RES
1 *1053:LO io_oeb[10] 48.8309 
*END

*D_NET *41 0.00729614
*CONN
*P io_oeb[11] O
*I *1054:LO O *D sky130_fd_sc_hd__conb_1
*CAP
1 io_oeb[11] 0.000729531
2 *1054:LO 0.000681697
3 *41:9 0.00141123
4 io_oeb[11] io_out[11] 9.2394e-05
5 io_oeb[11] io_out[12] 0
6 io_oeb[11] io_out[15] 0.00193443
7 io_oeb[11] *196:13 0
8 *41:9 *83:7 0
9 *41:9 *207:5 1.21289e-05
10 io_oeb[10] io_oeb[11] 0.00167692
11 io_oeb[10] *41:9 0.000447522
12 *216:DIODE *41:9 0.000170388
13 *1035:A *41:9 0.0001399
*RES
1 *1054:LO *41:9 27.0857 
2 *41:9 io_oeb[11] 28.8344 
*END

*D_NET *42 0.012664
*CONN
*P io_oeb[12] O
*I *1055:LO O *D sky130_fd_sc_hd__conb_1
*CAP
1 io_oeb[12] 0.00362273
2 *1055:LO 0.00362273
3 io_oeb[12] io_oeb[13] 0
4 io_oeb[12] io_out[12] 0.000381978
5 io_oeb[12] io_out[13] 0.000178985
6 io_oeb[12] *944:A 0.000658841
7 io_oeb[12] *997:A1 0.000192203
8 io_oeb[12] *1012:D 0.0029965
9 io_oeb[12] *124:16 0.000884122
10 io_oeb[12] *154:18 1.21859e-05
11 io_oeb[12] *157:16 0
12 io_oeb[12] *192:23 4.65519e-05
13 io_oeb[12] *193:26 4.65519e-05
14 io_oeb[12] *193:44 2.06112e-05
*RES
1 *1055:LO io_oeb[12] 34.3491 
*END

*D_NET *43 0.014006
*CONN
*P io_oeb[13] O
*I *1056:LO O *D sky130_fd_sc_hd__conb_1
*CAP
1 io_oeb[13] 0.00325317
2 *1056:LO 0.00325317
3 io_oeb[13] io_oeb[14] 0
4 io_oeb[13] io_out[13] 0.000377259
5 io_oeb[13] io_out[14] 0
6 io_oeb[13] io_out[16] 0
7 io_oeb[13] *943:D 0
8 io_oeb[13] *963:B 0
9 io_oeb[13] *978:A3 6.7562e-05
10 io_oeb[13] *982:B1 2.06112e-05
11 io_oeb[13] *985:A 8.2825e-05
12 io_oeb[13] *1012:D 0
13 io_oeb[13] *1017:SET_B 8.68574e-05
14 io_oeb[13] *44:14 0.00331147
15 io_oeb[13] *46:8 0.000916441
16 io_oeb[13] *117:13 7.90828e-05
17 io_oeb[13] *153:23 1.31781e-06
18 io_oeb[13] *157:16 0
19 io_oeb[13] *170:27 0.000110189
20 io_oeb[13] *172:16 9.4476e-05
21 io_oeb[13] *189:37 5.1771e-06
22 io_oeb[13] *203:90 0.00017792
23 io_oeb[13] *204:34 0
24 io_oeb[13] *205:84 7.247e-05
25 io_oeb[13] *205:88 0.000366147
26 io_oeb[13] *211:53 0.0016453
27 io_oeb[13] *214:49 8.45293e-05
28 io_oeb[12] io_oeb[13] 0
*RES
1 *1056:LO io_oeb[13] 49.826 
*END

*D_NET *44 0.014057
*CONN
*P io_oeb[14] O
*I *1057:LO O *D sky130_fd_sc_hd__conb_1
*CAP
1 io_oeb[14] 0.00082934
2 *1057:LO 0.00288086
3 *44:14 0.0037102
4 io_oeb[14] io_out[14] 0.000602401
5 *44:14 io_oeb[16] 0.000227262
6 *44:14 *963:B 0
7 *44:14 *1017:D 0.00019828
8 *44:14 *1025:RESET_B 0
9 *44:14 *1027:RESET_B 0.000197028
10 *44:14 *46:8 0.000192901
11 *44:14 *125:8 0
12 *44:14 *131:12 0.000264962
13 *44:14 *139:35 0
14 *44:14 *148:13 6.49115e-05
15 *44:14 *152:15 0.000104778
16 *44:14 *172:16 8.9443e-05
17 *44:14 *183:23 0.000189141
18 *44:14 *189:47 0
19 *44:14 *191:8 0.000107539
20 *44:14 *191:28 0.000374541
21 *44:14 *191:36 0.0001671
22 *44:14 *193:26 9.87983e-06
23 *44:14 *198:14 0.000418259
24 *44:14 *204:47 0.00011673
25 io_oeb[13] io_oeb[14] 0
26 io_oeb[13] *44:14 0.00331147
*RES
1 *1057:LO *44:14 49.961 
2 *44:14 io_oeb[14] 2.9422 
*END

*D_NET *45 0.00742346
*CONN
*P io_oeb[15] O
*I *1058:LO O *D sky130_fd_sc_hd__conb_1
*CAP
1 io_oeb[15] 0.000816058
2 *1058:LO 0.00131661
3 *45:14 0.00213267
4 io_oeb[15] io_out[15] 0
5 io_oeb[15] *943:A_N 0
6 io_oeb[15] *943:B_N 0
7 io_oeb[15] *1005:A 8.57713e-05
8 io_oeb[15] *190:6 9.91658e-05
9 io_oeb[15] *199:56 0
10 io_oeb[15] *213:8 0
11 *45:14 io_oeb[6] 8.1396e-05
12 *45:14 io_oeb[9] 0
13 *45:14 io_out[11] 0.000792448
14 *45:14 io_out[7] 0
15 *45:14 *959:B 0
16 *45:14 *961:B 0.000606187
17 *45:14 *974:A 6.8646e-06
18 *45:14 *993:A 0.000302509
19 *45:14 *1031:A 0.000128154
20 *45:14 *169:21 0.000181473
21 *45:14 *190:6 0.000299048
22 *45:14 *190:11 0.000462113
23 *45:14 *190:25 4.15183e-05
24 *45:14 *199:56 0
25 *45:14 *201:12 1.73733e-05
26 *45:14 *201:53 5.41054e-05
27 *2:14 *45:14 0
*RES
1 *1058:LO *45:14 49.8268 
2 *45:14 io_oeb[15] 15.2411 
*END

*D_NET *46 0.00721417
*CONN
*P io_oeb[16] O
*I *1059:LO O *D sky130_fd_sc_hd__conb_1
*CAP
1 io_oeb[16] 0.000227059
2 *1059:LO 0.00140184
3 *46:8 0.0016289
4 io_oeb[16] io_out[16] 0
5 *46:8 *948:A 0.000877426
6 *46:8 *948:C 0.000699473
7 *46:8 *960:A 1.18064e-05
8 *46:8 *960:B 0
9 *46:8 *973:A2 4.38058e-05
10 *46:8 *978:A3 7.49166e-06
11 *46:8 *1017:D 0.000315593
12 *46:8 *1037:A 0
13 *46:8 *146:14 0.000259261
14 *46:8 *167:23 0.000164298
15 *46:8 *172:16 0.000221521
16 *46:8 *193:26 1.90936e-05
17 io_oeb[13] *46:8 0.000916441
18 *44:14 io_oeb[16] 0.000227262
19 *44:14 *46:8 0.000192901
*RES
1 *1059:LO *46:8 48.6125 
2 *46:8 io_oeb[16] 6.13393 
*END

*D_NET *47 0.0091467
*CONN
*P io_oeb[17] O
*I *1060:LO O *D sky130_fd_sc_hd__conb_1
*CAP
1 io_oeb[17] 0.00038632
2 *1060:LO 0.000181789
3 *47:11 0.00340493
4 *47:8 0.0032004
5 io_oeb[17] io_out[17] 0
6 io_oeb[17] *205:37 8.15095e-05
7 *47:8 io_oeb[21] 0.000126439
8 *47:8 *1042:A 0
9 *47:11 *81:14 0.000311437
10 *47:11 *205:37 0.000623912
11 *47:11 *214:70 0.000829959
*RES
1 *1060:LO *47:8 21.7643 
2 *47:8 *47:11 44.4643 
3 *47:11 io_oeb[17] 7.80357 
*END

*D_NET *48 0.00454055
*CONN
*P io_oeb[18] O
*I *1061:LO O *D sky130_fd_sc_hd__conb_1
*CAP
1 io_oeb[18] 0.00166071
2 *1061:LO 0.00166071
3 io_oeb[18] io_out[18] 0
4 io_oeb[18] *987:B1 0.000296364
5 io_oeb[18] *1020:RESET_B 8.91986e-05
6 io_oeb[18] *1024:D 6.7224e-05
7 io_oeb[18] *174:23 4.14089e-05
8 io_oeb[18] *184:7 5.33005e-05
9 io_oeb[18] *184:42 0.000454873
10 io_oeb[18] *189:37 0.000216755
*RES
1 *1061:LO io_oeb[18] 39.6214 
*END

*D_NET *49 0.00526937
*CONN
*P io_oeb[19] O
*I *1062:LO O *D sky130_fd_sc_hd__conb_1
*CAP
1 io_oeb[19] 0.0012902
2 *1062:LO 0.0012902
3 io_oeb[19] io_oeb[21] 7.61932e-05
4 io_oeb[19] io_out[17] 0.000141012
5 io_oeb[19] io_out[19] 0
6 io_oeb[19] io_out[21] 7.03297e-05
7 io_oeb[19] *958:D 0
8 io_oeb[19] *1000:B 5.52302e-05
9 io_oeb[19] *1038:A 0.00113077
10 io_oeb[19] *1042:A 2.89114e-05
11 io_oeb[19] *85:16 2.65105e-05
12 io_oeb[19] *157:5 0.000271345
13 io_oeb[19] *205:37 0.000124947
14 io_oeb[19] *206:8 9.90431e-05
15 io_oeb[19] *211:28 0
16 io_oeb[19] *214:29 0.00056858
17 io_oeb[19] *214:37 9.60875e-05
18 io_oeb[19] *214:70 0
*RES
1 *1062:LO io_oeb[19] 44.8 
*END

*D_NET *50 0.00100265
*CONN
*P io_oeb[1] O
*I *1044:LO O *D sky130_fd_sc_hd__conb_1
*CAP
1 io_oeb[1] 0.000410082
2 *1044:LO 0.000410082
3 io_oeb[1] io_out[1] 0.000182481
4 io_oeb[1] io_out[2] 0
*RES
1 *1044:LO io_oeb[1] 20.1605 
*END

*D_NET *51 0.00332457
*CONN
*P io_oeb[20] O
*I *1063:LO O *D sky130_fd_sc_hd__conb_1
*CAP
1 io_oeb[20] 0.000895865
2 *1063:LO 0.000895865
3 io_oeb[20] io_out[20] 0
4 io_oeb[20] *992:A 4.18834e-05
5 io_oeb[20] *992:B 0.000107607
6 io_oeb[20] *1033:A 0.000802524
7 io_oeb[20] *1039:A 0
8 io_oeb[20] *81:8 0
9 io_oeb[20] *85:16 0
10 io_oeb[20] *151:44 0.000322453
11 io_oeb[20] *151:57 2.90068e-05
12 io_oeb[20] *207:8 3.92757e-05
13 io_oeb[20] *211:8 0
14 io_oeb[20] *214:29 0.00019009
*RES
1 *1063:LO io_oeb[20] 35.1929 
*END

*D_NET *52 0.0018263
*CONN
*P io_oeb[21] O
*I *1064:LO O *D sky130_fd_sc_hd__conb_1
*CAP
1 io_oeb[21] 0.000811832
2 *1064:LO 0.000811832
3 io_oeb[21] io_out[21] 0
4 io_oeb[19] io_oeb[21] 7.61932e-05
5 *47:8 io_oeb[21] 0.000126439
*RES
1 *1064:LO io_oeb[21] 29.4071 
*END

*D_NET *53 0.00133809
*CONN
*P io_oeb[22] O
*I *1065:LO O *D sky130_fd_sc_hd__conb_1
*CAP
1 io_oeb[22] 0.000561902
2 *1065:LO 0.000561902
3 io_oeb[22] io_out[22] 0
4 io_oeb[22] io_out[24] 0.000214287
*RES
1 *1065:LO io_oeb[22] 25.4786 
*END

*D_NET *54 0.00252174
*CONN
*P io_oeb[23] O
*I *1066:LO O *D sky130_fd_sc_hd__conb_1
*CAP
1 io_oeb[23] 0.00114467
2 *1066:LO 0.00114467
3 io_oeb[23] io_out[23] 0.000232399
*RES