*SPEF "ieee 1481-1999"
*DESIGN "tiny_user_project"
*DATE "11:11:11 Fri 11 11, 1111"
*VENDOR "OpenRCX"
*PROGRAM "Parallel Extraction"
*VERSION "1.0"
*DESIGN_FLOW "NAME_SCOPE LOCAL" "PIN_CAP NONE"
*DIVIDER /
*DELIMITER :
*BUS_DELIMITER []
*T_UNIT 1 NS
*C_UNIT 1 PF
*R_UNIT 1 OHM
*L_UNIT 1 HENRY

*NAME_MAP
*1 io_in[0]
*2 io_in[10]
*3 io_in[11]
*4 io_in[12]
*5 io_in[13]
*6 io_in[14]
*7 io_in[15]
*8 io_in[16]
*9 io_in[17]
*10 io_in[18]
*11 io_in[19]
*12 io_in[1]
*13 io_in[20]
*14 io_in[21]
*15 io_in[22]
*16 io_in[23]
*17 io_in[24]
*18 io_in[25]
*19 io_in[26]
*20 io_in[27]
*21 io_in[28]
*22 io_in[29]
*23 io_in[2]
*24 io_in[30]
*25 io_in[31]
*26 io_in[32]
*27 io_in[33]
*28 io_in[34]
*29 io_in[35]
*30 io_in[36]
*31 io_in[37]
*32 io_in[3]
*33 io_in[4]
*34 io_in[5]
*35 io_in[6]
*36 io_in[7]
*37 io_in[8]
*38 io_in[9]
*39 net14
*40 net24
*41 net25
*42 net26
*43 net27
*44 net28
*45 net29
*46 net30
*47 net31
*48 net32
*49 net33
*50 net15
*51 net34
*52 net35
*53 net36
*54 net37
*55 net38
*56 net39
*57 net40
*58 net41
*59 net42
*60 net43
*61 net16
*62 net44
*63 net45
*64 net46
*65 net47
*66 net48
*67 net49
*68 net50
*69 net51
*70 net17
*71 net18
*72 net19
*73 net20
*74 net21
*75 net22
*76 net23
*77 net52
*78 net62
*79 net63
*80 net64
*81 net65
*82 net66
*83 net67
*84 io_out[16]
*85 io_out[17]
*86 io_out[18]
*87 io_out[19]
*88 net53
*89 io_out[20]
*90 io_out[21]
*91 net68
*92 net69
*93 net70
*94 net71
*95 net72
*96 net73
*97 net74
*98 net75
*99 net54
*100 net76
*101 net77
*102 net78
*103 net79
*104 net80
*105 net81
*106 net82
*107 net83
*108 net55
*109 net56
*110 net57
*111 net58
*112 net59
*113 net60
*114 net61
*117 _000_
*118 _001_
*119 _002_
*120 _003_
*121 _004_
*122 _005_
*123 _006_
*124 _007_
*125 _008_
*126 _009_
*127 _010_
*128 _011_
*129 _012_
*130 _013_
*131 _014_
*132 _015_
*133 _016_
*134 _017_
*135 _018_
*136 _019_
*137 _020_
*138 _021_
*139 _022_
*140 _023_
*141 _024_
*142 _025_
*143 _026_
*144 _027_
*145 _028_
*146 _029_
*147 _030_
*148 _031_
*149 _032_
*150 _033_
*151 _034_
*152 _035_
*153 _036_
*154 _037_
*155 _038_
*156 _039_
*157 _040_
*158 _041_
*159 _042_
*160 _043_
*161 _044_
*162 _045_
*163 _046_
*164 _047_
*165 _048_
*166 _049_
*167 _050_
*168 _051_
*169 _052_
*170 _053_
*171 _054_
*172 _055_
*173 _056_
*174 _057_
*175 _058_
*176 _059_
*177 _060_
*178 _061_
*179 _062_
*180 _063_
*181 _064_
*182 _065_
*183 _066_
*184 mod\.cnter_enb_ovf_i1\.cnt_val\[0\]
*185 mod\.cnter_enb_ovf_i1\.cnt_val\[1\]
*186 mod\.cnter_enb_ovf_i1\.cnt_val\[2\]
*187 mod\.cnter_enb_ovf_i1\.cnt_val\[3\]
*188 mod\.cnter_enb_ovf_i1\.cnt_val\[4\]
*189 mod\.cnter_enb_ovf_i1\.overflow
*190 mod\.cnter_enb_ovf_i2\.cnt_val\[0\]
*191 mod\.cnter_enb_ovf_i2\.cnt_val\[1\]
*192 mod\.cnter_enb_ovf_i2\.cnt_val\[2\]
*193 mod\.cnter_enb_ovf_i2\.cnt_val\[3\]
*194 mod\.cnter_enb_ovf_i2\.cnt_val\[4\]
*195 mod\.traffic_sm_inst\.traffic_state\[0\]
*196 mod\.traffic_sm_inst\.traffic_state\[1\]
*197 mod\.traffic_sm_inst\.traffic_state\[2\]
*198 mod\.traffic_sm_inst\.traffic_state\[3\]
*199 mod\.traffic_sm_inst\.traffic_state\[4\]
*200 mod\.traffic_sm_inst\.traffic_state\[5\]
*201 mod\.traffic_sm_inst\.traffic_state\[6\]
*202 net1
*203 net10
*204 net11
*205 net12
*206 net13
*207 net2
*208 net3
*209 net4
*210 net5
*211 net6
*212 net7
*213 net8
*214 net9
*215 ANTENNA_input1_A
*216 ANTENNA_input2_A
*217 ANTENNA_input3_A
*218 FILLER_0_109
*219 FILLER_0_113
*220 FILLER_0_125
*221 FILLER_0_137
*222 FILLER_0_141
*223 FILLER_0_15
*224 FILLER_0_153
*225 FILLER_0_165
*226 FILLER_0_169
*227 FILLER_0_181
*228 FILLER_0_193
*229 FILLER_0_197
*230 FILLER_0_209
*231 FILLER_0_221
*232 FILLER_0_225
*233 FILLER_0_237
*234 FILLER_0_249
*235 FILLER_0_253
*236 FILLER_0_265
*237 FILLER_0_27
*238 FILLER_0_277
*239 FILLER_0_281
*240 FILLER_0_29
*241 FILLER_0_293
*242 FILLER_0_3
*243 FILLER_0_41
*244 FILLER_0_53
*245 FILLER_0_57
*246 FILLER_0_69
*247 FILLER_0_81
*248 FILLER_0_85
*249 FILLER_0_97
*250 FILLER_10_109
*251 FILLER_10_121
*252 FILLER_10_133
*253 FILLER_10_139
*254 FILLER_10_141
*255 FILLER_10_153
*256 FILLER_10_165
*257 FILLER_10_177
*258 FILLER_10_189
*259 FILLER_10_195
*260 FILLER_10_197
*261 FILLER_10_20
*262 FILLER_10_209
*263 FILLER_10_221
*264 FILLER_10_233
*265 FILLER_10_245
*266 FILLER_10_251
*267 FILLER_10_253
*268 FILLER_10_265
*269 FILLER_10_277
*270 FILLER_10_289
*271 FILLER_10_29
*272 FILLER_10_293
*273 FILLER_10_297
*274 FILLER_10_3
*275 FILLER_10_41
*276 FILLER_10_53
*277 FILLER_10_65
*278 FILLER_10_77
*279 FILLER_10_8
*280 FILLER_10_83
*281 FILLER_10_85
*282 FILLER_10_97
*283 FILLER_11_105
*284 FILLER_11_111
*285 FILLER_11_113
*286 FILLER_11_125
*287 FILLER_11_137
*288 FILLER_11_149
*289 FILLER_11_15
*290 FILLER_11_161
*291 FILLER_11_167
*292 FILLER_11_169
*293 FILLER_11_181
*294 FILLER_11_193
*295 FILLER_11_205
*296 FILLER_11_217
*297 FILLER_11_223
*298 FILLER_11_225
*299 FILLER_11_237
*300 FILLER_11_249
*301 FILLER_11_261
*302 FILLER_11_27
*303 FILLER_11_273
*304 FILLER_11_279
*305 FILLER_11_281
*306 FILLER_11_293
*307 FILLER_11_3
*308 FILLER_11_39
*309 FILLER_11_51
*310 FILLER_11_55
*311 FILLER_11_57
*312 FILLER_11_69
*313 FILLER_11_81
*314 FILLER_11_93
*315 FILLER_12_109
*316 FILLER_12_121
*317 FILLER_12_133
*318 FILLER_12_139
*319 FILLER_12_141
*320 FILLER_12_15
*321 FILLER_12_153
*322 FILLER_12_165
*323 FILLER_12_177
*324 FILLER_12_189
*325 FILLER_12_195
*326 FILLER_12_197
*327 FILLER_12_209
*328 FILLER_12_221
*329 FILLER_12_233
*330 FILLER_12_245
*331 FILLER_12_251
*332 FILLER_12_253
*333 FILLER_12_265
*334 FILLER_12_27
*335 FILLER_12_277
*336 FILLER_12_289
*337 FILLER_12_29
*338 FILLER_12_293
*339 FILLER_12_297
*340 FILLER_12_3
*341 FILLER_12_41
*342 FILLER_12_53
*343 FILLER_12_65
*344 FILLER_12_77
*345 FILLER_12_83
*346 FILLER_12_85
*347 FILLER_12_97
*348 FILLER_13_105
*349 FILLER_13_111
*350 FILLER_13_113
*351 FILLER_13_125
*352 FILLER_13_137
*353 FILLER_13_149
*354 FILLER_13_161
*355 FILLER_13_167
*356 FILLER_13_169
*357 FILLER_13_181
*358 FILLER_13_193
*359 FILLER_13_20
*360 FILLER_13_205
*361 FILLER_13_217
*362 FILLER_13_223
*363 FILLER_13_225
*364 FILLER_13_237
*365 FILLER_13_249
*366 FILLER_13_261
*367 FILLER_13_273
*368 FILLER_13_279
*369 FILLER_13_281
*370 FILLER_13_293
*371 FILLER_13_297
*372 FILLER_13_3
*373 FILLER_13_32
*374 FILLER_13_44
*375 FILLER_13_57
*376 FILLER_13_69
*377 FILLER_13_8
*378 FILLER_13_81
*379 FILLER_13_93
*380 FILLER_14_109
*381 FILLER_14_121
*382 FILLER_14_133
*383 FILLER_14_139
*384 FILLER_14_141
*385 FILLER_14_153
*386 FILLER_14_165
*387 FILLER_14_177
*388 FILLER_14_189
*389 FILLER_14_195
*390 FILLER_14_197
*391 FILLER_14_20
*392 FILLER_14_209
*393 FILLER_14_221
*394 FILLER_14_233
*395 FILLER_14_245
*396 FILLER_14_251
*397 FILLER_14_253
*398 FILLER_14_265
*399 FILLER_14_277
*400 FILLER_14_289
*401 FILLER_14_29
*402 FILLER_14_297
*403 FILLER_14_3
*404 FILLER_14_41
*405 FILLER_14_53
*406 FILLER_14_65
*407 FILLER_14_77
*408 FILLER_14_8
*409 FILLER_14_83
*410 FILLER_14_85
*411 FILLER_14_97
*412 FILLER_15_105
*413 FILLER_15_111
*414 FILLER_15_113
*415 FILLER_15_125
*416 FILLER_15_137
*417 FILLER_15_149
*418 FILLER_15_15
*419 FILLER_15_161
*420 FILLER_15_167
*421 FILLER_15_169
*422 FILLER_15_181
*423 FILLER_15_193
*424 FILLER_15_205
*425 FILLER_15_217
*426 FILLER_15_223
*427 FILLER_15_225
*428 FILLER_15_237
*429 FILLER_15_249
*430 FILLER_15_261
*431 FILLER_15_27
*432 FILLER_15_273
*433 FILLER_15_279
*434 FILLER_15_281
*435 FILLER_15_293
*436 FILLER_15_3
*437 FILLER_15_39
*438 FILLER_15_51
*439 FILLER_15_55
*440 FILLER_15_57
*441 FILLER_15_69
*442 FILLER_15_81
*443 FILLER_15_93
*444 FILLER_16_109
*445 FILLER_16_121
*446 FILLER_16_133
*447 FILLER_16_139
*448 FILLER_16_141
*449 FILLER_16_15
*450 FILLER_16_153
*451 FILLER_16_165
*452 FILLER_16_177
*453 FILLER_16_189
*454 FILLER_16_195
*455 FILLER_16_197
*456 FILLER_16_209
*457 FILLER_16_221
*458 FILLER_16_233
*459 FILLER_16_245
*460 FILLER_16_251
*461 FILLER_16_253
*462 FILLER_16_265
*463 FILLER_16_27
*464 FILLER_16_277
*465 FILLER_16_289
*466 FILLER_16_29
*467 FILLER_16_293
*468 FILLER_16_297
*469 FILLER_16_3
*470 FILLER_16_41
*471 FILLER_16_53
*472 FILLER_16_65
*473 FILLER_16_77
*474 FILLER_16_83
*475 FILLER_16_85
*476 FILLER_16_97
*477 FILLER_17_105
*478 FILLER_17_111
*479 FILLER_17_113
*480 FILLER_17_125
*481 FILLER_17_137
*482 FILLER_17_149
*483 FILLER_17_161
*484 FILLER_17_167
*485 FILLER_17_169
*486 FILLER_17_181
*487 FILLER_17_193
*488 FILLER_17_20
*489 FILLER_17_205
*490 FILLER_17_217
*491 FILLER_17_223
*492 FILLER_17_225
*493 FILLER_17_237
*494 FILLER_17_249
*495 FILLER_17_261
*496 FILLER_17_273
*497 FILLER_17_279
*498 FILLER_17_281
*499 FILLER_17_293
*500 FILLER_17_297
*501 FILLER_17_3
*502 FILLER_17_32
*503 FILLER_17_44
*504 FILLER_17_57
*505 FILLER_17_69
*506 FILLER_17_8
*507 FILLER_17_81
*508 FILLER_17_93
*509 FILLER_18_109
*510 FILLER_18_121
*511 FILLER_18_133
*512 FILLER_18_139
*513 FILLER_18_141
*514 FILLER_18_153
*515 FILLER_18_165
*516 FILLER_18_177
*517 FILLER_18_189
*518 FILLER_18_195
*519 FILLER_18_197
*520 FILLER_18_20
*521 FILLER_18_209
*522 FILLER_18_221
*523 FILLER_18_233
*524 FILLER_18_245
*525 FILLER_18_251
*526 FILLER_18_253
*527 FILLER_18_265
*528 FILLER_18_277
*529 FILLER_18_289
*530 FILLER_18_29
*531 FILLER_18_297
*532 FILLER_18_3
*533 FILLER_18_41
*534 FILLER_18_53
*535 FILLER_18_65
*536 FILLER_18_77
*537 FILLER_18_8
*538 FILLER_18_83
*539 FILLER_18_85
*540 FILLER_18_97
*541 FILLER_19_105
*542 FILLER_19_111
*543 FILLER_19_113
*544 FILLER_19_125
*545 FILLER_19_137
*546 FILLER_19_149
*547 FILLER_19_15
*548 FILLER_19_161
*549 FILLER_19_167
*550 FILLER_19_169
*551 FILLER_19_181
*552 FILLER_19_193
*553 FILLER_19_205
*554 FILLER_19_217
*555 FILLER_19_223
*556 FILLER_19_225
*557 FILLER_19_237
*558 FILLER_19_249
*559 FILLER_19_261
*560 FILLER_19_27
*561 FILLER_19_273
*562 FILLER_19_279
*563 FILLER_19_281
*564 FILLER_19_293
*565 FILLER_19_3
*566 FILLER_19_39
*567 FILLER_19_51
*568 FILLER_19_55
*569 FILLER_19_57
*570 FILLER_19_69
*571 FILLER_19_81
*572 FILLER_19_93
*573 FILLER_1_105
*574 FILLER_1_111
*575 FILLER_1_113
*576 FILLER_1_125
*577 FILLER_1_137
*578 FILLER_1_149
*579 FILLER_1_15
*580 FILLER_1_161
*581 FILLER_1_167
*582 FILLER_1_169
*583 FILLER_1_181
*584 FILLER_1_193
*585 FILLER_1_205
*586 FILLER_1_217
*587 FILLER_1_223
*588 FILLER_1_225
*589 FILLER_1_237
*590 FILLER_1_249
*591 FILLER_1_261
*592 FILLER_1_27
*593 FILLER_1_273
*594 FILLER_1_279
*595 FILLER_1_281
*596 FILLER_1_293
*597 FILLER_1_297
*598 FILLER_1_3
*599 FILLER_1_39
*600 FILLER_1_51
*601 FILLER_1_55
*602 FILLER_1_57
*603 FILLER_1_69
*604 FILLER_1_81
*605 FILLER_1_93
*606 FILLER_20_109
*607 FILLER_20_121
*608 FILLER_20_133
*609 FILLER_20_139
*610 FILLER_20_141
*611 FILLER_20_153
*612 FILLER_20_165
*613 FILLER_20_177
*614 FILLER_20_189
*615 FILLER_20_195
*616 FILLER_20_197
*617 FILLER_20_20
*618 FILLER_20_209
*619 FILLER_20_221
*620 FILLER_20_233
*621 FILLER_20_245
*622 FILLER_20_251
*623 FILLER_20_253
*624 FILLER_20_265
*625 FILLER_20_277
*626 FILLER_20_289
*627 FILLER_20_29
*628 FILLER_20_293
*629 FILLER_20_297
*630 FILLER_20_3
*631 FILLER_20_41
*632 FILLER_20_53
*633 FILLER_20_65
*634 FILLER_20_77
*635 FILLER_20_8
*636 FILLER_20_83
*637 FILLER_20_85
*638 FILLER_20_97
*639 FILLER_21_105
*640 FILLER_21_111
*641 FILLER_21_113
*642 FILLER_21_125
*643 FILLER_21_137
*644 FILLER_21_149
*645 FILLER_21_15
*646 FILLER_21_161
*647 FILLER_21_167
*648 FILLER_21_169
*649 FILLER_21_181
*650 FILLER_21_193
*651 FILLER_21_205
*652 FILLER_21_217
*653 FILLER_21_223
*654 FILLER_21_225
*655 FILLER_21_237
*656 FILLER_21_249
*657 FILLER_21_261
*658 FILLER_21_27
*659 FILLER_21_273
*660 FILLER_21_279
*661 FILLER_21_281
*662 FILLER_21_293
*663 FILLER_21_297
*664 FILLER_21_3
*665 FILLER_21_39
*666 FILLER_21_51
*667 FILLER_21_55
*668 FILLER_21_57
*669 FILLER_21_69
*670 FILLER_21_81
*671 FILLER_21_93
*672 FILLER_22_109
*673 FILLER_22_121
*674 FILLER_22_133
*675 FILLER_22_139
*676 FILLER_22_141
*677 FILLER_22_153
*678 FILLER_22_165
*679 FILLER_22_177
*680 FILLER_22_189
*681 FILLER_22_195
*682 FILLER_22_197
*683 FILLER_22_20
*684 FILLER_22_209
*685 FILLER_22_221
*686 FILLER_22_233
*687 FILLER_22_245
*688 FILLER_22_251
*689 FILLER_22_253
*690 FILLER_22_265
*691 FILLER_22_277
*692 FILLER_22_289
*693 FILLER_22_29
*694 FILLER_22_297
*695 FILLER_22_3
*696 FILLER_22_41
*697 FILLER_22_53
*698 FILLER_22_65
*699 FILLER_22_77
*700 FILLER_22_8
*701 FILLER_22_83
*702 FILLER_22_85
*703 FILLER_22_97
*704 FILLER_23_105
*705 FILLER_23_111
*706 FILLER_23_113
*707 FILLER_23_125
*708 FILLER_23_137
*709 FILLER_23_149
*710 FILLER_23_15
*711 FILLER_23_161
*712 FILLER_23_167
*713 FILLER_23_169
*714 FILLER_23_181
*715 FILLER_23_193
*716 FILLER_23_205
*717 FILLER_23_217
*718 FILLER_23_223
*719 FILLER_23_225
*720 FILLER_23_237
*721 FILLER_23_249
*722 FILLER_23_261
*723 FILLER_23_27
*724 FILLER_23_273
*725 FILLER_23_279
*726 FILLER_23_281
*727 FILLER_23_293
*728 FILLER_23_297
*729 FILLER_23_3
*730 FILLER_23_39
*731 FILLER_23_51
*732 FILLER_23_55
*733 FILLER_23_57
*734 FILLER_23_69
*735 FILLER_23_81
*736 FILLER_23_93
*737 FILLER_24_109
*738 FILLER_24_121
*739 FILLER_24_133
*740 FILLER_24_139
*741 FILLER_24_141
*742 FILLER_24_153
*743 FILLER_24_165
*744 FILLER_24_177
*745 FILLER_24_189
*746 FILLER_24_195
*747 FILLER_24_197
*748 FILLER_24_20
*749 FILLER_24_209
*750 FILLER_24_221
*751 FILLER_24_233
*752 FILLER_24_245
*753 FILLER_24_251
*754 FILLER_24_253
*755 FILLER_24_265
*756 FILLER_24_277
*757 FILLER_24_289
*758 FILLER_24_29
*759 FILLER_24_297
*760 FILLER_24_3
*761 FILLER_24_41
*762 FILLER_24_53
*763 FILLER_24_65
*764 FILLER_24_77
*765 FILLER_24_8
*766 FILLER_24_83
*767 FILLER_24_85
*768 FILLER_24_97
*769 FILLER_25_105
*770 FILLER_25_111
*771 FILLER_25_113
*772 FILLER_25_125
*773 FILLER_25_137
*774 FILLER_25_149
*775 FILLER_25_161
*776 FILLER_25_167
*777 FILLER_25_169
*778 FILLER_25_181
*779 FILLER_25_193
*780 FILLER_25_20
*781 FILLER_25_205
*782 FILLER_25_217
*783 FILLER_25_223
*784 FILLER_25_225
*785 FILLER_25_237
*786 FILLER_25_249
*787 FILLER_25_261
*788 FILLER_25_273
*789 FILLER_25_279
*790 FILLER_25_281
*791 FILLER_25_293
*792 FILLER_25_297
*793 FILLER_25_3
*794 FILLER_25_32
*795 FILLER_25_44
*796 FILLER_25_57
*797 FILLER_25_69
*798 FILLER_25_8
*799 FILLER_25_81
*800 FILLER_25_93
*801 FILLER_26_109
*802 FILLER_26_121
*803 FILLER_26_133
*804 FILLER_26_139
*805 FILLER_26_141
*806 FILLER_26_15
*807 FILLER_26_153
*808 FILLER_26_165
*809 FILLER_26_177
*810 FILLER_26_189
*811 FILLER_26_195
*812 FILLER_26_197
*813 FILLER_26_209
*814 FILLER_26_221
*815 FILLER_26_233
*816 FILLER_26_245
*817 FILLER_26_251
*818 FILLER_26_253
*819 FILLER_26_265
*820 FILLER_26_27
*821 FILLER_26_277
*822 FILLER_26_289
*823 FILLER_26_29
*824 FILLER_26_297
*825 FILLER_26_3
*826 FILLER_26_41
*827 FILLER_26_53
*828 FILLER_26_65
*829 FILLER_26_77
*830 FILLER_26_83
*831 FILLER_26_85
*832 FILLER_26_97
*833 FILLER_27_105
*834 FILLER_27_111
*835 FILLER_27_113
*836 FILLER_27_125
*837 FILLER_27_137
*838 FILLER_27_149
*839 FILLER_27_15
*840 FILLER_27_161
*841 FILLER_27_167
*842 FILLER_27_169
*843 FILLER_27_181
*844 FILLER_27_193
*845 FILLER_27_205
*846 FILLER_27_217
*847 FILLER_27_223
*848 FILLER_27_225
*849 FILLER_27_237
*850 FILLER_27_249
*851 FILLER_27_261
*852 FILLER_27_27
*853 FILLER_27_273
*854 FILLER_27_279
*855 FILLER_27_281
*856 FILLER_27_293
*857 FILLER_27_297
*858 FILLER_27_3
*859 FILLER_27_39
*860 FILLER_27_51
*861 FILLER_27_55
*862 FILLER_27_57
*863 FILLER_27_69
*864 FILLER_27_81
*865 FILLER_27_93
*866 FILLER_28_109
*867 FILLER_28_121
*868 FILLER_28_133
*869 FILLER_28_139
*870 FILLER_28_141
*871 FILLER_28_153
*872 FILLER_28_165
*873 FILLER_28_177
*874 FILLER_28_189
*875 FILLER_28_195
*876 FILLER_28_197
*877 FILLER_28_20
*878 FILLER_28_209
*879 FILLER_28_221
*880 FILLER_28_233
*881 FILLER_28_245
*882 FILLER_28_251
*883 FILLER_28_253
*884 FILLER_28_265
*885 FILLER_28_277
*886 FILLER_28_289
*887 FILLER_28_29
*888 FILLER_28_293
*889 FILLER_28_297
*890 FILLER_28_3
*891 FILLER_28_41
*892 FILLER_28_53
*893 FILLER_28_65
*894 FILLER_28_77
*895 FILLER_28_8
*896 FILLER_28_83
*897 FILLER_28_85
*898 FILLER_28_97
*899 FILLER_29_105
*900 FILLER_29_111
*901 FILLER_29_113
*902 FILLER_29_125
*903 FILLER_29_137
*904 FILLER_29_149
*905 FILLER_29_161
*906 FILLER_29_167
*907 FILLER_29_169
*908 FILLER_29_181
*909 FILLER_29_193
*910 FILLER_29_20
*911 FILLER_29_205
*912 FILLER_29_217
*913 FILLER_29_223
*914 FILLER_29_225
*915 FILLER_29_237
*916 FILLER_29_249
*917 FILLER_29_261
*918 FILLER_29_273
*919 FILLER_29_279
*920 FILLER_29_281
*921 FILLER_29_293
*922 FILLER_29_3
*923 FILLER_29_32
*924 FILLER_29_44
*925 FILLER_29_57
*926 FILLER_29_69
*927 FILLER_29_8
*928 FILLER_29_81
*929 FILLER_29_93
*930 FILLER_2_109
*931 FILLER_2_121
*932 FILLER_2_133
*933 FILLER_2_139
*934 FILLER_2_141
*935 FILLER_2_153
*936 FILLER_2_165
*937 FILLER_2_177
*938 FILLER_2_189
*939 FILLER_2_195
*940 FILLER_2_197
*941 FILLER_2_20
*942 FILLER_2_209
*943 FILLER_2_221
*944 FILLER_2_233
*945 FILLER_2_245
*946 FILLER_2_251
*947 FILLER_2_253
*948 FILLER_2_265
*949 FILLER_2_277
*950 FILLER_2_289
*951 FILLER_2_29
*952 FILLER_2_293
*953 FILLER_2_297
*954 FILLER_2_3
*955 FILLER_2_41
*956 FILLER_2_53
*957 FILLER_2_65
*958 FILLER_2_77
*959 FILLER_2_8
*960 FILLER_2_83
*961 FILLER_2_85
*962 FILLER_2_97
*963 FILLER_30_109
*964 FILLER_30_121
*965 FILLER_30_133
*966 FILLER_30_139
*967 FILLER_30_141
*968 FILLER_30_15
*969 FILLER_30_153
*970 FILLER_30_165
*971 FILLER_30_177
*972 FILLER_30_189
*973 FILLER_30_195
*974 FILLER_30_197
*975 FILLER_30_209
*976 FILLER_30_221
*977 FILLER_30_233
*978 FILLER_30_245
*979 FILLER_30_251
*980 FILLER_30_253
*981 FILLER_30_265
*982 FILLER_30_27
*983 FILLER_30_277
*984 FILLER_30_285
*985 FILLER_30_29
*986 FILLER_30_290
*987 FILLER_30_297
*988 FILLER_30_3
*989 FILLER_30_41
*990 FILLER_30_53
*991 FILLER_30_65
*992 FILLER_30_77
*993 FILLER_30_83
*994 FILLER_30_85
*995 FILLER_30_97
*996 FILLER_31_105
*997 FILLER_31_111
*998 FILLER_31_113
*999 FILLER_31_125
*1000 FILLER_31_137
*1001 FILLER_31_149
*1002 FILLER_31_15
*1003 FILLER_31_161
*1004 FILLER_31_167
*1005 FILLER_31_169
*1006 FILLER_31_181
*1007 FILLER_31_193
*1008 FILLER_31_205
*1009 FILLER_31_217
*1010 FILLER_31_223
*1011 FILLER_31_225
*1012 FILLER_31_237
*1013 FILLER_31_249
*1014 FILLER_31_261
*1015 FILLER_31_27
*1016 FILLER_31_273
*1017 FILLER_31_279
*1018 FILLER_31_281
*1019 FILLER_31_293
*1020 FILLER_31_297
*1021 FILLER_31_3
*1022 FILLER_31_39
*1023 FILLER_31_51
*1024 FILLER_31_55
*1025 FILLER_31_57
*1026 FILLER_31_69
*1027 FILLER_31_81
*1028 FILLER_31_93
*1029 FILLER_32_109
*1030 FILLER_32_121
*1031 FILLER_32_133
*1032 FILLER_32_139
*1033 FILLER_32_141
*1034 FILLER_32_153
*1035 FILLER_32_165
*1036 FILLER_32_177
*1037 FILLER_32_189
*1038 FILLER_32_195
*1039 FILLER_32_197
*1040 FILLER_32_20
*1041 FILLER_32_209
*1042 FILLER_32_221
*1043 FILLER_32_233
*1044 FILLER_32_245
*1045 FILLER_32_251
*1046 FILLER_32_253
*1047 FILLER_32_265
*1048 FILLER_32_277
*1049 FILLER_32_289
*1050 FILLER_32_29
*1051 FILLER_32_293
*1052 FILLER_32_297
*1053 FILLER_32_3
*1054 FILLER_32_41
*1055 FILLER_32_53
*1056 FILLER_32_65
*1057 FILLER_32_77
*1058 FILLER_32_8
*1059 FILLER_32_83
*1060 FILLER_32_85
*1061 FILLER_32_97
*1062 FILLER_33_105
*1063 FILLER_33_111
*1064 FILLER_33_113
*1065 FILLER_33_125
*1066 FILLER_33_137
*1067 FILLER_33_149
*1068 FILLER_33_161
*1069 FILLER_33_167
*1070 FILLER_33_169
*1071 FILLER_33_181
*1072 FILLER_33_193
*1073 FILLER_33_20
*1074 FILLER_33_205
*1075 FILLER_33_217
*1076 FILLER_33_223
*1077 FILLER_33_225
*1078 FILLER_33_237
*1079 FILLER_33_249
*1080 FILLER_33_261
*1081 FILLER_33_273
*1082 FILLER_33_279
*1083 FILLER_33_281
*1084 FILLER_33_287
*1085 FILLER_33_290
*1086 FILLER_33_297
*1087 FILLER_33_3
*1088 FILLER_33_32
*1089 FILLER_33_44
*1090 FILLER_33_57
*1091 FILLER_33_69
*1092 FILLER_33_8
*1093 FILLER_33_81
*1094 FILLER_33_93
*1095 FILLER_34_109
*1096 FILLER_34_121
*1097 FILLER_34_133
*1098 FILLER_34_139
*1099 FILLER_34_141
*1100 FILLER_34_15
*1101 FILLER_34_153
*1102 FILLER_34_165
*1103 FILLER_34_177
*1104 FILLER_34_189
*1105 FILLER_34_195
*1106 FILLER_34_197
*1107 FILLER_34_209
*1108 FILLER_34_221
*1109 FILLER_34_233
*1110 FILLER_34_245
*1111 FILLER_34_251
*1112 FILLER_34_253
*1113 FILLER_34_265
*1114 FILLER_34_27
*1115 FILLER_34_277
*1116 FILLER_34_289
*1117 FILLER_34_29
*1118 FILLER_34_297
*1119 FILLER_34_3
*1120 FILLER_34_41
*1121 FILLER_34_53
*1122 FILLER_34_65
*1123 FILLER_34_77
*1124 FILLER_34_83
*1125 FILLER_34_85
*1126 FILLER_34_97
*1127 FILLER_35_105
*1128 FILLER_35_111
*1129 FILLER_35_113
*1130 FILLER_35_125
*1131 FILLER_35_137
*1132 FILLER_35_149
*1133 FILLER_35_161
*1134 FILLER_35_167
*1135 FILLER_35_169
*1136 FILLER_35_181
*1137 FILLER_35_193
*1138 FILLER_35_20
*1139 FILLER_35_205
*1140 FILLER_35_217
*1141 FILLER_35_223
*1142 FILLER_35_225
*1143 FILLER_35_237
*1144 FILLER_35_249
*1145 FILLER_35_261
*1146 FILLER_35_273
*1147 FILLER_35_279
*1148 FILLER_35_281
*1149 FILLER_35_293
*1150 FILLER_35_297
*1151 FILLER_35_3
*1152 FILLER_35_32
*1153 FILLER_35_44
*1154 FILLER_35_57
*1155 FILLER_35_69
*1156 FILLER_35_8
*1157 FILLER_35_81
*1158 FILLER_35_93
*1159 FILLER_36_109
*1160 FILLER_36_121
*1161 FILLER_36_133
*1162 FILLER_36_139
*1163 FILLER_36_141
*1164 FILLER_36_15
*1165 FILLER_36_153
*1166 FILLER_36_165
*1167 FILLER_36_177
*1168 FILLER_36_189
*1169 FILLER_36_195
*1170 FILLER_36_197
*1171 FILLER_36_209
*1172 FILLER_36_221
*1173 FILLER_36_233
*1174 FILLER_36_245
*1175 FILLER_36_251
*1176 FILLER_36_253
*1177 FILLER_36_265
*1178 FILLER_36_27
*1179 FILLER_36_277
*1180 FILLER_36_289
*1181 FILLER_36_29
*1182 FILLER_36_293
*1183 FILLER_36_297
*1184 FILLER_36_3
*1185 FILLER_36_41
*1186 FILLER_36_53
*1187 FILLER_36_65
*1188 FILLER_36_77
*1189 FILLER_36_83
*1190 FILLER_36_85
*1191 FILLER_36_97
*1192 FILLER_37_105
*1193 FILLER_37_111
*1194 FILLER_37_113
*1195 FILLER_37_125
*1196 FILLER_37_137
*1197 FILLER_37_149
*1198 FILLER_37_161
*1199 FILLER_37_167
*1200 FILLER_37_169
*1201 FILLER_37_181
*1202 FILLER_37_193
*1203 FILLER_37_20
*1204 FILLER_37_205
*1205 FILLER_37_217
*1206 FILLER_37_223
*1207 FILLER_37_225
*1208 FILLER_37_237
*1209 FILLER_37_249
*1210 FILLER_37_261
*1211 FILLER_37_273
*1212 FILLER_37_279
*1213 FILLER_37_281
*1214 FILLER_37_287
*1215 FILLER_37_290
*1216 FILLER_37_297
*1217 FILLER_37_3
*1218 FILLER_37_32
*1219 FILLER_37_44
*1220 FILLER_37_57
*1221 FILLER_37_69
*1222 FILLER_37_8
*1223 FILLER_37_81
*1224 FILLER_37_93
*1225 FILLER_38_109
*1226 FILLER_38_121
*1227 FILLER_38_133
*1228 FILLER_38_139
*1229 FILLER_38_141
*1230 FILLER_38_15
*1231 FILLER_38_153
*1232 FILLER_38_165
*1233 FILLER_38_177
*1234 FILLER_38_189
*1235 FILLER_38_195
*1236 FILLER_38_197
*1237 FILLER_38_209
*1238 FILLER_38_217
*1239 FILLER_38_224
*1240 FILLER_38_233
*1241 FILLER_38_245
*1242 FILLER_38_251
*1243 FILLER_38_253
*1244 FILLER_38_265
*1245 FILLER_38_27
*1246 FILLER_38_277
*1247 FILLER_38_289
*1248 FILLER_38_29
*1249 FILLER_38_293
*1250 FILLER_38_297
*1251 FILLER_38_3
*1252 FILLER_38_41
*1253 FILLER_38_53
*1254 FILLER_38_65
*1255 FILLER_38_77
*1256 FILLER_38_83
*1257 FILLER_38_85
*1258 FILLER_38_97
*1259 FILLER_39_105
*1260 FILLER_39_111
*1261 FILLER_39_113
*1262 FILLER_39_125
*1263 FILLER_39_137
*1264 FILLER_39_149
*1265 FILLER_39_161
*1266 FILLER_39_167
*1267 FILLER_39_169
*1268 FILLER_39_181
*1269 FILLER_39_193
*1270 FILLER_39_20
*1271 FILLER_39_205
*1272 FILLER_39_209
*1273 FILLER_39_220
*1274 FILLER_39_225
*1275 FILLER_39_234
*1276 FILLER_39_244
*1277 FILLER_39_256
*1278 FILLER_39_268
*1279 FILLER_39_281
*1280 FILLER_39_293
*1281 FILLER_39_3
*1282 FILLER_39_32
*1283 FILLER_39_44
*1284 FILLER_39_57
*1285 FILLER_39_69
*1286 FILLER_39_8
*1287 FILLER_39_81
*1288 FILLER_39_93
*1289 FILLER_3_105
*1290 FILLER_3_111
*1291 FILLER_3_113
*1292 FILLER_3_125
*1293 FILLER_3_137
*1294 FILLER_3_149
*1295 FILLER_3_161
*1296 FILLER_3_167
*1297 FILLER_3_169
*1298 FILLER_3_181
*1299 FILLER_3_193
*1300 FILLER_3_20
*1301 FILLER_3_205
*1302 FILLER_3_217
*1303 FILLER_3_223
*1304 FILLER_3_225
*1305 FILLER_3_237
*1306 FILLER_3_249
*1307 FILLER_3_261
*1308 FILLER_3_273
*1309 FILLER_3_279
*1310 FILLER_3_281
*1311 FILLER_3_293
*1312 FILLER_3_3
*1313 FILLER_3_32
*1314 FILLER_3_44
*1315 FILLER_3_57
*1316 FILLER_3_69
*1317 FILLER_3_8
*1318 FILLER_3_81
*1319 FILLER_3_93
*1320 FILLER_40_109
*1321 FILLER_40_121
*1322 FILLER_40_133
*1323 FILLER_40_139
*1324 FILLER_40_141
*1325 FILLER_40_153
*1326 FILLER_40_165
*1327 FILLER_40_177
*1328 FILLER_40_189
*1329 FILLER_40_195
*1330 FILLER_40_197
*1331 FILLER_40_20
*1332 FILLER_40_203
*1333 FILLER_40_209
*1334 FILLER_40_233
*1335 FILLER_40_244
*1336 FILLER_40_253
*1337 FILLER_40_258
*1338 FILLER_40_270
*1339 FILLER_40_282
*1340 FILLER_40_29
*1341 FILLER_40_297
*1342 FILLER_40_3
*1343 FILLER_40_41
*1344 FILLER_40_53
*1345 FILLER_40_65
*1346 FILLER_40_77
*1347 FILLER_40_8
*1348 FILLER_40_83
*1349 FILLER_40_85
*1350 FILLER_40_97
*1351 FILLER_41_105
*1352 FILLER_41_111
*1353 FILLER_41_113
*1354 FILLER_41_125
*1355 FILLER_41_137
*1356 FILLER_41_149
*1357 FILLER_41_15
*1358 FILLER_41_161
*1359 FILLER_41_167
*1360 FILLER_41_169
*1361 FILLER_41_181
*1362 FILLER_41_189
*1363 FILLER_41_195
*1364 FILLER_41_206
*1365 FILLER_41_219
*1366 FILLER_41_223
*1367 FILLER_41_225
*1368 FILLER_41_247
*1369 FILLER_41_256
*1370 FILLER_41_265
*1371 FILLER_41_27
*1372 FILLER_41_277
*1373 FILLER_41_281
*1374 FILLER_41_293
*1375 FILLER_41_3
*1376 FILLER_41_39
*1377 FILLER_41_51
*1378 FILLER_41_55
*1379 FILLER_41_57
*1380 FILLER_41_69
*1381 FILLER_41_81
*1382 FILLER_41_93
*1383 FILLER_42_109
*1384 FILLER_42_121
*1385 FILLER_42_133
*1386 FILLER_42_139
*1387 FILLER_42_141
*1388 FILLER_42_15
*1389 FILLER_42_153
*1390 FILLER_42_165
*1391 FILLER_42_177
*1392 FILLER_42_183
*1393 FILLER_42_194
*1394 FILLER_42_197
*1395 FILLER_42_206
*1396 FILLER_42_230
*1397 FILLER_42_249
*1398 FILLER_42_253
*1399 FILLER_42_263
*1400 FILLER_42_27
*1401 FILLER_42_272
*1402 FILLER_42_284
*1403 FILLER_42_29
*1404 FILLER_42_292
*1405 FILLER_42_297
*1406 FILLER_42_3
*1407 FILLER_42_41
*1408 FILLER_42_53
*1409 FILLER_42_65
*1410 FILLER_42_77
*1411 FILLER_42_83
*1412 FILLER_42_85
*1413 FILLER_42_97
*1414 FILLER_43_105
*1415 FILLER_43_111
*1416 FILLER_43_113
*1417 FILLER_43_125
*1418 FILLER_43_137
*1419 FILLER_43_149
*1420 FILLER_43_161
*1421 FILLER_43_167
*1422 FILLER_43_169
*1423 FILLER_43_176
*1424 FILLER_43_186
*1425 FILLER_43_198
*1426 FILLER_43_20
*1427 FILLER_43_222
*1428 FILLER_43_225
*1429 FILLER_43_247
*1430 FILLER_43_259
*1431 FILLER_43_271
*1432 FILLER_43_278
*1433 FILLER_43_281
*1434 FILLER_43_286
*1435 FILLER_43_297
*1436 FILLER_43_3
*1437 FILLER_43_32
*1438 FILLER_43_44
*1439 FILLER_43_57
*1440 FILLER_43_69
*1441 FILLER_43_8
*1442 FILLER_43_81
*1443 FILLER_43_93
*1444 FILLER_44_109
*1445 FILLER_44_121
*1446 FILLER_44_133
*1447 FILLER_44_139
*1448 FILLER_44_141
*1449 FILLER_44_153
*1450 FILLER_44_162
*1451 FILLER_44_171
*1452 FILLER_44_182
*1453 FILLER_44_194
*1454 FILLER_44_197
*1455 FILLER_44_20
*1456 FILLER_44_207
*1457 FILLER_44_232
*1458 FILLER_44_246
*1459 FILLER_44_253
*1460 FILLER_44_275
*1461 FILLER_44_285
*1462 FILLER_44_29
*1463 FILLER_44_292
*1464 FILLER_44_298
*1465 FILLER_44_3
*1466 FILLER_44_41
*1467 FILLER_44_53
*1468 FILLER_44_65
*1469 FILLER_44_77
*1470 FILLER_44_8
*1471 FILLER_44_83
*1472 FILLER_44_85
*1473 FILLER_44_97
*1474 FILLER_45_105
*1475 FILLER_45_111
*1476 FILLER_45_113
*1477 FILLER_45_125
*1478 FILLER_45_137
*1479 FILLER_45_149
*1480 FILLER_45_15
*1481 FILLER_45_156
*1482 FILLER_45_166
*1483 FILLER_45_169
*1484 FILLER_45_174
*1485 FILLER_45_198
*1486 FILLER_45_222
*1487 FILLER_45_225
*1488 FILLER_45_247
*1489 FILLER_45_27
*1490 FILLER_45_271
*1491 FILLER_45_278
*1492 FILLER_45_281
*1493 FILLER_45_290
*1494 FILLER_45_297
*1495 FILLER_45_3
*1496 FILLER_45_39
*1497 FILLER_45_51
*1498 FILLER_45_55
*1499 FILLER_45_57
*1500 FILLER_45_69
*1501 FILLER_45_81
*1502 FILLER_45_93
*1503 FILLER_46_109
*1504 FILLER_46_121
*1505 FILLER_46_133
*1506 FILLER_46_139
*1507 FILLER_46_141
*1508 FILLER_46_15
*1509 FILLER_46_153
*1510 FILLER_46_162
*1511 FILLER_46_170
*1512 FILLER_46_181
*1513 FILLER_46_194
*1514 FILLER_46_197
*1515 FILLER_46_201
*1516 FILLER_46_212
*1517 FILLER_46_237
*1518 FILLER_46_250
*1519 FILLER_46_253
*1520 FILLER_46_27
*1521 FILLER_46_275
*1522 FILLER_46_285
*1523 FILLER_46_29
*1524 FILLER_46_292
*1525 FILLER_46_298
*1526 FILLER_46_3
*1527 FILLER_46_41
*1528 FILLER_46_53
*1529 FILLER_46_65
*1530 FILLER_46_77
*1531 FILLER_46_83
*1532 FILLER_46_85
*1533 FILLER_46_97
*1534 FILLER_47_105
*1535 FILLER_47_111
*1536 FILLER_47_113
*1537 FILLER_47_125
*1538 FILLER_47_137
*1539 FILLER_47_149
*1540 FILLER_47_161
*1541 FILLER_47_167
*1542 FILLER_47_169
*1543 FILLER_47_175
*1544 FILLER_47_185
*1545 FILLER_47_198
*1546 FILLER_47_20
*1547 FILLER_47_222
*1548 FILLER_47_225
*1549 FILLER_47_247
*1550 FILLER_47_259
*1551 FILLER_47_270
*1552 FILLER_47_278
*1553 FILLER_47_281
*1554 FILLER_47_293
*1555 FILLER_47_297
*1556 FILLER_47_3
*1557 FILLER_47_32
*1558 FILLER_47_44
*1559 FILLER_47_57
*1560 FILLER_47_69
*1561 FILLER_47_8
*1562 FILLER_47_81
*1563 FILLER_47_93
*1564 FILLER_48_109
*1565 FILLER_48_121
*1566 FILLER_48_133
*1567 FILLER_48_139
*1568 FILLER_48_141
*1569 FILLER_48_153
*1570 FILLER_48_165
*1571 FILLER_48_177
*1572 FILLER_48_184
*1573 FILLER_48_194
*1574 FILLER_48_197
*1575 FILLER_48_20
*1576 FILLER_48_206
*1577 FILLER_48_230
*1578 FILLER_48_244
*1579 FILLER_48_253
*1580 FILLER_48_263
*1581 FILLER_48_271
*1582 FILLER_48_283
*1583 FILLER_48_29
*1584 FILLER_48_291
*1585 FILLER_48_297
*1586 FILLER_48_3
*1587 FILLER_48_41
*1588 FILLER_48_53
*1589 FILLER_48_65
*1590 FILLER_48_77
*1591 FILLER_48_8
*1592 FILLER_48_83
*1593 FILLER_48_85
*1594 FILLER_48_97
*1595 FILLER_49_105
*1596 FILLER_49_111
*1597 FILLER_49_113
*1598 FILLER_49_125
*1599 FILLER_49_137
*1600 FILLER_49_149
*1601 FILLER_49_15
*1602 FILLER_49_161
*1603 FILLER_49_167
*1604 FILLER_49_169
*1605 FILLER_49_181
*1606 FILLER_49_198
*1607 FILLER_49_209
*1608 FILLER_49_222
*1609 FILLER_49_225
*1610 FILLER_49_247
*1611 FILLER_49_256
*1612 FILLER_49_265
*1613 FILLER_49_27
*1614 FILLER_49_277
*1615 FILLER_49_281
*1616 FILLER_49_293
*1617 FILLER_49_3
*1618 FILLER_49_39
*1619 FILLER_49_51
*1620 FILLER_49_55
*1621 FILLER_49_57